opendss/LVTestCase/data/PV/PV_178.txt
New generator.m_gen10 Phases=1 Bus1=248.2 kV=0.23 kW=1 PF=0.95 Yearly=PV_Shape_15
New generator.m_gen39 Phases=1 Bus1=701.3 kV=0.23 kW=1 PF=0.95 Yearly=PV_Shape_127
New generator.m_gen2 Phases=1 Bus1=47.2 kV=0.23 kW=1 PF=0.95 Yearly=PV_Shape_10
New generator.m_gen32 Phases=1 Bus1=614.3 kV=0.23 kW=1 PF=0.95 Yearly=PV_Shape_19
New generator.m_gen50 Phases=1 Bus1=886.2 kV=0.23 kW=1 PF=0.95 Yearly=PV_Shape_80
New generator.m_gen31 Phases=1 Bus1=611.1 kV=0.23 kW=1 PF=0.95 Yearly=PV_Shape_79
New generator.m_gen24 Phases=1 Bus1=458.3 kV=0.23 kW=1 PF=0.95 Yearly=PV_Shape_14
New generator.m_gen30 Phases=1 Bus1=563.1 kV=0.23 kW=1 PF=0.95 Yearly=PV_Shape_42
New generator.m_gen23 Phases=1 Bus1=406.2 kV=0.23 kW=1 PF=0.95 Yearly=PV_Shape_44
New generator.m_gen26 Phases=1 Bus1=522.2 kV=0.23 kW=1 PF=0.95 Yearly=PV_Shape_26
New generator.m_gen12 Phases=1 Bus1=264.3 kV=0.23 kW=1 PF=0.95 Yearly=PV_Shape_135
